Circuit: * E:\ETTI_AN 2_SEM 2\CAD\ProiectFinal\ProiectFInal.asc

Direct Newton iteration failed to find .op point.  (Use ".option noopiter" to skip.)
Starting Gmin stepping
Gmin = 10
Gmin = 1.07374
Gmin = 0.115292
Gmin = 0.0123794
Gmin = 0.00132923
Gmin = 0.000142725
Gmin = 1.5325e-005
Gmin = 1.6455e-006
Gmin = 1.76685e-007
Gmin = 1.89714e-008
Gmin = 2.03704e-009
Gmin = 2.18725e-010
Gmin = 2.34854e-011
Gmin = 2.52173e-012
Gmin = 2.70769e-013
Gmin = 0
Gmin stepping succeeded in finding the operating point.


Date: Wed Jun 22 11:49:16 2022
Total elapsed time: 0.713 seconds.

tnom = 27
temp = 27
method = modified trap
totiter = 20125
traniter = 19764
tranpoints = 9139
accept = 6476
rejected = 2663
matrix size = 64
fillins = 81
solver = Normal
Thread vector: 45.8/8.7[4] 3.2/3.5[1] 2.5/3.0[1] 0.3/1.4[1]  2592/500
Matrix Compiler1: 8.77 KB object code size  1.4/0.8/[0.4]
Matrix Compiler2: 8.41 KB object code size  1.1/1.3/[0.4]

